# created with PyMOL
@<TRIPOS>MOLECULE
file_0_0
9 9 1
SMALL
USER_CHARGES
@<TRIPOS>ATOM
1	   N	-5.152	1.873	8.972	N.ar	1	UNK0	0.000	
2	   N	-4.867	2.466	6.860	N.ar	1	UNK0	0.000	
3	   C	-5.147	3.244	8.960	C.ar	1	UNK0	0.000	
4	   C	-4.981	1.446	7.693	C.ar	1	UNK0	0.000	
5	   C	-4.969	3.590	7.640	C.ar	1	UNK0	0.000	
6	   H	-5.266	3.826	9.855	 H	1	UNK0	0.000	
7	   H	-4.909	4.576	7.215	 H	1	UNK0	0.000	
8	   H	-5.264	1.288	9.782	 H	1	UNK0	0.000	
9	   H	-4.947	0.404	7.425	 H	1	UNK0	0.000	
@<TRIPOS>BOND
0 1 4 1
1 1 8 1
2 2 5 1
3 3 1 1
4 3 5 2
5 4 2 2
6 4 9 1
7 5 7 1
8 6 3 1
@<TRIPOS>SUBSTRUCTURE
1	UNK0	1	GROUP	1 ****	UNK
